Version 4
SHEET 1 1368 680
WIRE 1088 -128 848 -128
WIRE -192 -32 -288 -32
WIRE -288 16 -288 -32
WIRE 336 80 304 80
WIRE 80 96 0 96
WIRE 848 96 848 -128
WIRE 1088 96 1088 -128
WIRE 304 112 304 80
WIRE -288 128 -288 96
WIRE -288 128 -352 128
WIRE 0 128 0 96
WIRE 80 128 80 96
WIRE 240 128 80 128
WIRE -352 160 -352 128
WIRE 240 160 80 160
WIRE 544 176 368 176
WIRE 624 176 544 176
WIRE 800 176 704 176
WIRE -288 192 -288 128
WIRE 240 192 160 192
WIRE 512 192 448 192
WIRE 448 208 448 192
WIRE 544 208 544 176
WIRE 1088 208 1088 176
WIRE 0 224 0 208
WIRE 80 224 80 160
WIRE 80 224 0 224
WIRE 240 224 192 224
WIRE 0 240 0 224
WIRE 800 256 784 256
WIRE 848 256 848 192
WIRE 848 256 800 256
WIRE 304 272 304 240
WIRE 336 272 304 272
WIRE 512 288 512 192
WIRE 544 288 544 272
WIRE 544 288 512 288
WIRE 848 288 848 256
WIRE 192 304 192 224
WIRE 448 304 448 288
WIRE 448 304 192 304
WIRE 624 304 448 304
WIRE 784 304 784 256
WIRE 784 304 704 304
WIRE -288 336 -288 272
WIRE -192 336 -288 336
WIRE 160 352 160 192
WIRE 784 352 160 352
WIRE 784 400 784 352
WIRE 848 400 848 368
WIRE 848 400 784 400
WIRE 848 432 848 400
FLAG -352 160 0
FLAG -192 336 -5
FLAG -192 -32 +5
FLAG 336 80 +5
FLAG 336 272 -5
FLAG 848 432 0
FLAG 0 240 0
FLAG 0 96 input
FLAG 800 256 output
FLAG 1088 208 0
SYMBOL OpAmps\\LT1193 304 176 R0
WINDOW 3 -97 88 Left 2
SYMATTR InstName U1
SYMBOL voltage -288 0 R0
WINDOW 123 0 0 Left 0
WINDOW 39 0 0 Left 0
SYMATTR InstName V1
SYMATTR Value 5
SYMBOL voltage -288 176 R0
WINDOW 123 0 0 Left 0
WINDOW 39 0 0 Left 0
SYMATTR InstName V2
SYMATTR Value 5
SYMBOL res 832 272 R0
SYMATTR InstName R1
SYMATTR Value 0.1
SYMBOL voltage 0 112 R0
WINDOW 3 -124 -72 Left 2
WINDOW 123 0 0 Left 0
WINDOW 39 0 0 Left 0
SYMATTR Value PULSE(0 0.5 1u 10n 10n 1u)
SYMATTR InstName V3
SYMBOL nmos 800 96 R0
SYMATTR InstName M1
SYMATTR Value AO6408
SYMBOL voltage 1088 80 R0
WINDOW 123 0 0 Left 0
WINDOW 39 0 0 Left 0
SYMATTR InstName V4
SYMATTR Value 20V
SYMBOL res 720 288 R90
WINDOW 0 0 56 VBottom 2
WINDOW 3 32 56 VTop 2
SYMATTR InstName R2
SYMATTR Value 110
SYMBOL res 720 160 R90
WINDOW 0 0 56 VBottom 2
WINDOW 3 32 56 VTop 2
SYMATTR InstName R3
SYMATTR Value 50
SYMBOL res 464 304 R180
WINDOW 0 36 76 Left 2
WINDOW 3 36 40 Left 2
SYMATTR InstName R4
SYMATTR Value 220
SYMBOL cap 528 208 R0
SYMATTR InstName C1
SYMATTR Value 220p
TEXT -376 456 Left 2 !.tran 3u
