Version 4
SHEET 1 1368 680
WIRE 1264 -128 1024 -128
WIRE 1024 -64 1024 -128
WIRE -192 -32 -288 -32
WIRE -288 16 -288 -32
WIRE 1024 48 1024 16
WIRE 1072 48 1024 48
WIRE 1152 48 1136 48
WIRE 336 80 304 80
WIRE 1152 80 1152 48
WIRE 80 96 0 96
WIRE 1024 96 1024 48
WIRE 1264 96 1264 -128
WIRE 304 112 304 80
WIRE -288 128 -288 96
WIRE -288 128 -352 128
WIRE 0 128 0 96
WIRE 80 128 80 96
WIRE 240 128 80 128
WIRE -352 160 -352 128
WIRE 240 160 80 160
WIRE 480 176 368 176
WIRE 560 176 480 176
WIRE 800 176 560 176
WIRE 912 176 880 176
WIRE 960 176 912 176
WIRE -288 192 -288 128
WIRE 240 192 160 192
WIRE 1264 208 1264 176
WIRE 0 224 0 208
WIRE 80 224 80 160
WIRE 80 224 0 224
WIRE 240 224 192 224
WIRE 480 224 480 176
WIRE 560 224 560 176
WIRE 0 240 0 224
WIRE 976 240 976 208
WIRE 1024 240 1024 192
WIRE 1024 240 976 240
WIRE 304 272 304 240
WIRE 336 272 304 272
WIRE 976 288 960 288
WIRE 1024 288 1024 240
WIRE 1024 288 976 288
WIRE 1024 320 1024 288
WIRE -288 336 -288 272
WIRE -192 336 -288 336
WIRE 192 336 192 224
WIRE 480 336 480 288
WIRE 480 336 192 336
WIRE 560 336 560 288
WIRE 560 336 480 336
WIRE 800 336 560 336
WIRE 960 336 960 288
WIRE 960 336 880 336
WIRE 160 384 160 192
WIRE 960 384 160 384
WIRE 960 432 960 384
WIRE 1024 432 1024 400
WIRE 1024 432 960 432
WIRE 1024 464 1024 432
FLAG -352 160 0
FLAG -192 336 -5
FLAG -192 -32 +5
FLAG 336 80 +5
FLAG 336 272 -5
FLAG 1024 464 0
FLAG 0 240 0
FLAG 0 96 input
FLAG 976 288 output
FLAG 1264 208 0
FLAG 912 176 gate
FLAG 1152 80 0
SYMBOL voltage -288 0 R0
WINDOW 123 0 0 Left 0
WINDOW 39 0 0 Left 0
SYMATTR InstName V1
SYMATTR Value 8
SYMBOL voltage -288 176 R0
WINDOW 123 0 0 Left 0
WINDOW 39 0 0 Left 0
SYMATTR InstName V2
SYMATTR Value 8
SYMBOL res 1008 304 R0
SYMATTR InstName SHUNT
SYMATTR Value 0.5
SYMBOL voltage 0 112 R0
WINDOW 3 -124 -72 Left 2
WINDOW 123 0 0 Left 0
WINDOW 39 0 0 Left 0
SYMATTR Value PULSE(0 2.5 100n 1p 1p 100n)
SYMATTR InstName V3
SYMBOL voltage 1264 80 R0
WINDOW 123 0 0 Left 0
WINDOW 39 24 124 Left 2
SYMATTR SpiceLine Rser=1
SYMATTR InstName V4
SYMATTR Value 500
SYMBOL GaN_LTspice_GS66502B_L3V4P1 976 144 R0
WINDOW 3 -247 -86 Center 2
SYMATTR InstName U2
SYMBOL cap 544 224 R0
SYMATTR InstName C1
SYMATTR Value 33p
SYMBOL res 896 320 R90
WINDOW 0 0 56 VBottom 2
WINDOW 3 32 56 VTop 2
SYMATTR InstName R3
SYMATTR Value 250
SYMBOL res 896 160 R90
WINDOW 0 -6 56 VBottom 2
WINDOW 3 32 56 VTop 2
SYMATTR InstName R2
SYMATTR Value 100
SYMBOL schottky 496 288 R180
WINDOW 0 24 64 Left 2
WINDOW 3 24 0 Left 2
SYMATTR InstName D1
SYMATTR Value BAT54
SYMBOL ind 1008 -80 R0
SYMATTR InstName L1
SYMATTR Value 10n
SYMBOL cap 1136 32 R90
WINDOW 0 0 32 VBottom 2
WINDOW 3 32 32 VTop 2
SYMATTR InstName C2
SYMATTR Value 10p
SYMBOL OpAmps\\LT1193 304 176 R0
SYMATTR InstName U1
TEXT -376 456 Left 2 !.tran 300n
